
 OpenBabel11242117153D

 77 80  0  0  0  0  0  0  0  0999 V2000
    5.9028    0.9962    1.4279 C   0  0  0  0  0  0  0  0  0  0  0  0
    4.9672    0.8786    0.2315 C   0  0  0  0  0  0  0  0  0  0  0  0
    3.9916    1.8454   -0.0508 C   0  0  0  0  0  0  0  0  0  0  0  0
    3.1398    1.6529   -1.1432 C   0  0  0  0  0  0  0  0  0  0  0  0
    3.3134    0.5899   -2.0287 C   0  0  0  0  0  0  0  0  0  0  0  0
    4.3015   -0.3525   -1.7532 C   0  0  0  0  0  0  0  0  0  0  0  0
    5.1088   -0.2168   -0.6251 C   0  0  0  0  0  0  0  0  0  0  0  0
    2.5114    0.4270   -3.2104 N   0  0  0  0  0  0  0  0  0  0  0  0
    1.8087    1.3535   -3.9137 C   0  0  0  0  0  0  0  0  0  0  0  0
    1.6964    2.5063   -3.5475 O   0  0  0  0  0  0  0  0  0  0  0  0
    1.2251    0.9030   -5.2254 C   0  0  0  0  0  0  0  0  0  0  0  0
    0.5043    1.8175   -6.0037 C   0  0  0  0  0  0  0  0  0  0  0  0
   -0.0088    1.4507   -7.2465 C   0  0  0  0  0  0  0  0  0  0  0  0
    0.1938    0.1602   -7.7316 C   0  0  0  0  0  0  0  0  0  0  0  0
    0.8958   -0.7610   -6.9550 C   0  0  0  0  0  0  0  0  0  0  0  0
    1.4064   -0.3971   -5.7125 C   0  0  0  0  0  0  0  0  0  0  0  0
   -0.3118   -0.2542   -9.1016 C   0  0  0  0  0  0  0  0  0  0  0  0
    0.8227   -0.6410   -9.9696 N   0  0  0  0  0  0  0  0  0  0  0  0
    1.5464    0.5217  -10.5413 C   0  0  0  0  0  0  0  0  0  0  0  0
    2.8211    0.0481  -11.2723 C   0  0  0  0  0  0  0  0  0  0  0  0
    2.5011   -0.9828  -12.2922 N   0  0  0  0  0  0  0  0  0  0  0  0
    1.7472   -2.1215  -11.7119 C   0  0  0  0  0  0  0  0  0  0  0  0
    0.4639   -1.6261  -11.0136 C   0  0  0  0  0  0  0  0  0  0  0  0
    3.7162   -1.4416  -12.9968 C   0  0  0  0  0  0  0  0  0  0  0  0
    3.8543    2.9767    0.7258 N   0  0  0  0  0  0  0  0  0  0  0  0
    3.3759    4.2187    0.3861 C   0  0  0  0  0  0  0  0  0  0  0  0
    2.8530    4.9654    1.3796 N   0  0  0  0  0  0  0  0  0  0  0  0
    2.2995    6.1368    0.9953 C   0  0  0  0  0  0  0  0  0  0  0  0
    2.2510    6.5404   -0.3415 C   0  0  0  0  0  0  0  0  0  0  0  0
    2.8298    5.7173   -1.3222 C   0  0  0  0  0  0  0  0  0  0  0  0
    3.4157    4.5652   -0.9199 N   0  0  0  0  0  0  0  0  0  0  0  0
    2.7788    6.0245   -2.6991 C   0  0  0  0  0  0  0  0  0  0  0  0
    2.0980    7.1433   -3.2084 C   0  0  0  0  0  0  0  0  0  0  0  0
    2.0008    7.4286   -4.5279 N   0  0  0  0  0  0  0  0  0  0  0  0
    2.5955    6.5906   -5.4032 C   0  0  0  0  0  0  0  0  0  0  0  0
    3.2986    5.4616   -4.9969 C   0  0  0  0  0  0  0  0  0  0  0  0
    3.3929    5.1782   -3.6381 C   0  0  0  0  0  0  0  0  0  0  0  0
   -0.4615   -1.3523    1.2948 C   0  0  0  0  0  0  0  0  0  0  0  0
    0.7944   -0.9468    0.1090 S   0  0  0  0  0  0  0  0  0  0  0  0
    1.9884   -0.7252    0.8740 O   0  0  0  0  0  0  0  0  0  0  0  0
    0.8226   -1.8576   -1.0002 O   0  0  0  0  0  0  0  0  0  0  0  0
    0.2725    0.4679   -0.3853 O   0  0  0  0  0  0  0  0  0  0  0  0
    5.4433    1.5448    2.2524 H   0  0  0  0  0  0  0  0  0  0  0  0
    6.8218    1.5106    1.1388 H   0  0  0  0  0  0  0  0  0  0  0  0
    6.1700    0.0060    1.8041 H   0  0  0  0  0  0  0  0  0  0  0  0
    2.3218    2.3454   -1.2953 H   0  0  0  0  0  0  0  0  0  0  0  0
    4.4456   -1.2019   -2.4165 H   0  0  0  0  0  0  0  0  0  0  0  0
    5.8691   -0.9677   -0.4245 H   0  0  0  0  0  0  0  0  0  0  0  0
    2.5652   -0.4950   -3.6122 H   0  0  0  0  0  0  0  0  0  0  0  0
    0.3446    2.8331   -5.6484 H   0  0  0  0  0  0  0  0  0  0  0  0
   -0.5560    2.1800   -7.8393 H   0  0  0  0  0  0  0  0  0  0  0  0
    1.0634   -1.7686   -7.3284 H   0  0  0  0  0  0  0  0  0  0  0  0
    1.9617   -1.1383   -5.1451 H   0  0  0  0  0  0  0  0  0  0  0  0
   -0.8881    0.5463   -9.5754 H   0  0  0  0  0  0  0  0  0  0  0  0
   -0.9781   -1.1118   -8.9728 H   0  0  0  0  0  0  0  0  0  0  0  0
    1.8303    1.2164   -9.7460 H   0  0  0  0  0  0  0  0  0  0  0  0
    0.8973    1.0481  -11.2477 H   0  0  0  0  0  0  0  0  0  0  0  0
    3.5177   -0.3655  -10.5371 H   0  0  0  0  0  0  0  0  0  0  0  0
    3.2958    0.9071  -11.7550 H   0  0  0  0  0  0  0  0  0  0  0  0
    2.3733   -2.6412  -10.9799 H   0  0  0  0  0  0  0  0  0  0  0  0
    1.4760   -2.8280  -12.5011 H   0  0  0  0  0  0  0  0  0  0  0  0
   -0.0416   -2.4814  -10.5566 H   0  0  0  0  0  0  0  0  0  0  0  0
   -0.2073   -1.1695  -11.7468 H   0  0  0  0  0  0  0  0  0  0  0  0
    4.4110   -1.9035  -12.2889 H   0  0  0  0  0  0  0  0  0  0  0  0
    4.2102   -0.5939  -13.4792 H   0  0  0  0  0  0  0  0  0  0  0  0
    3.4496   -2.1748  -13.7630 H   0  0  0  0  0  0  0  0  0  0  0  0
    4.1722    2.8874    1.6835 H   0  0  0  0  0  0  0  0  0  0  0  0
    1.8645    6.7435    1.7863 H   0  0  0  0  0  0  0  0  0  0  0  0
    1.7673    7.4809   -0.5796 H   0  0  0  0  0  0  0  0  0  0  0  0
    1.5758    7.8499   -2.5723 H   0  0  0  0  0  0  0  0  0  0  0  0
    2.4933    6.8436   -6.4567 H   0  0  0  0  0  0  0  0  0  0  0  0
    3.7631    4.8059   -5.7294 H   0  0  0  0  0  0  0  0  0  0  0  0
    3.9383    4.2877   -3.3347 H   0  0  0  0  0  0  0  0  0  0  0  0
   -0.2166   -2.3186    1.7428 H   0  0  0  0  0  0  0  0  0  0  0  0
   -1.4237   -1.4072    0.7795 H   0  0  0  0  0  0  0  0  0  0  0  0
   -0.4849   -0.5747    2.0625 H   0  0  0  0  0  0  0  0  0  0  0  0
    0.7029    1.1670    0.1403 H   0  0  0  0  0  0  0  0  0  0  0  0
  1  2  1  0  0  0  0
  1 43  1  0  0  0  0
  1 44  1  0  0  0  0
  1 45  1  0  0  0  0
  2  3  2  0  0  0  0
  2  7  1  0  0  0  0
  3  4  1  0  0  0  0
  3 25  1  0  0  0  0
  4  5  2  0  0  0  0
  4 46  1  0  0  0  0
  5  6  1  0  0  0  0
  5  8  1  0  0  0  0
  6  7  2  0  0  0  0
  6 47  1  0  0  0  0
  7 48  1  0  0  0  0
  8  9  1  0  0  0  0
  8 49  1  0  0  0  0
  9 10  2  0  0  0  0
  9 11  1  0  0  0  0
 11 12  2  0  0  0  0
 11 16  1  0  0  0  0
 12 13  1  0  0  0  0
 12 50  1  0  0  0  0
 13 14  2  0  0  0  0
 13 51  1  0  0  0  0
 14 15  1  0  0  0  0
 14 17  1  0  0  0  0
 15 16  2  0  0  0  0
 15 52  1  0  0  0  0
 16 53  1  0  0  0  0
 17 18  1  0  0  0  0
 17 54  1  0  0  0  0
 17 55  1  0  0  0  0
 18 19  1  0  0  0  0
 18 23  1  0  0  0  0
 19 20  1  0  0  0  0
 19 56  1  0  0  0  0
 19 57  1  0  0  0  0
 20 21  1  0  0  0  0
 20 58  1  0  0  0  0
 20 59  1  0  0  0  0
 21 22  1  0  0  0  0
 21 24  1  0  0  0  0
 22 23  1  0  0  0  0
 22 60  1  0  0  0  0
 22 61  1  0  0  0  0
 23 62  1  0  0  0  0
 23 63  1  0  0  0  0
 24 64  1  0  0  0  0
 24 65  1  0  0  0  0
 24 66  1  0  0  0  0
 25 26  1  0  0  0  0
 25 67  1  0  0  0  0
 26 27  2  0  0  0  0
 26 31  1  0  0  0  0
 27 28  1  0  0  0  0
 28 29  2  0  0  0  0
 28 68  1  0  0  0  0
 29 30  1  0  0  0  0
 29 69  1  0  0  0  0
 30 31  2  0  0  0  0
 30 32  1  0  0  0  0
 32 33  2  0  0  0  0
 32 37  1  0  0  0  0
 33 34  1  0  0  0  0
 33 70  1  0  0  0  0
 34 35  2  0  0  0  0
 35 36  1  0  0  0  0
 35 71  1  0  0  0  0
 36 37  2  0  0  0  0
 36 72  1  0  0  0  0
 37 73  1  0  0  0  0
 38 39  1  0  0  0  0
 38 74  1  0  0  0  0
 38 75  1  0  0  0  0
 38 76  1  0  0  0  0
 39 40  2  0  0  0  0
 39 41  2  0  0  0  0
 39 42  1  0  0  0  0
 42 77  1  0  0  0  0
M  END
$$$$
